feeder-models/OpenDSS/Feeder 1/Ener1/Shunts.dss
New "Reactor.Reac3" kv=12.470000000 phases=3 Z0=[-25241.962, -29607.342] Z1=[1153934, -11312011] bus1=B_11 bus2=B_11.0.0.0
New "Reactor.Reac49" kv=12.470000000 phases=3 Z0=[-1419.9535, 363.16751] Z1=[2403.2455, -101501.26] bus1=B_11.1.2.3 bus2=B_11.0.0.0
New "Reactor.Reac22" kv=12.470000000 phases=3 Z0=[10673684, 269121.74] Z1=[10673684, 269120.89] bus1=B_5.1.2.3 bus2=B_5.0.0.0
New "Reactor.Reac28" kv=12.470000000 phases=3 Z0=[830434.43, -1435241.8] Z1=[51260088, 2189894.4] bus1=B_5.1.2.3 bus2=B_5.0.0.0
New "Reactor.Reac48" kv=12.470000000 phases=3 Z0=[-99704.88, -84736.125] Z1=[3482014.3, -6798075.6] bus1=B_5.1.2.3 bus2=B_5.0.0.0
New "Reactor.Reac35" kv=12.470000000 phases=3 Z0=[-59518.244, -87392.634] Z1=[41264.194, -599217.36] bus1=B_9.1.2.3 bus2=B_9.0.0.0
New "Reactor.Reac37" kv=12.470000000 phases=3 Z0=[-94201.872, -179362.61] Z1=[193044.69, -819076.3] bus1=B_9.1.2.3 bus2=B_9.0.0.0
New "Reactor.Reac53" kv=12.470000000 phases=3 Z0=[-5717.0765, 2464.7373] Z1=[178954, -370923.37] bus1=B_9.1.2.3 bus2=B_9.0.0.0
New "Reactor.Reac50" kv=12.470000000 phases=3 Z0=[-120923.17, 100752.35] Z1=[165883.2, -693612.24] bus1=B_10.1.2.3 bus2=B_10.0.0.0
New "Reactor.Reac52" kv=12.470000000 phases=3 Z0=[-13026.151, 8673.4768] Z1=[194207.24, -1337833] bus1=B_10.1.2.3 bus2=B_10.0.0.0
New "Reactor.Reac25" kv=12.470000000 phases=3 Z0=[-539272, -1138861.2] Z1=[9.8693014E008, -3.4643134E008] bus1=B_6.1.2.3 bus2=B_6.0.0.0
New "Reactor.Reac24" kv=12.470000000 phases=3 Z0=[-184750.29, -390164.67] Z1=[3.3788099E008, -1.1897519E008] bus1=B_8.1.2.3 bus2=B_8.0.0.0
New "Reactor.Reac21" kv=12.470000000 phases=3 Z0=[-1689243.4, 1611644.4] Z1=[8035259.8, -14911402] bus1=B_3.1.2.3 bus2=B_3.0.0.0
New "Reactor.Reac20" kv=12.470000000 phases=3 Z0=[21295.657, 96173.321] Z1=[-12697.848, -612225.33] bus1=B_4.1.2.3 bus2=B_4.0.0.0
New "Reactor.Reac55" kv=12.470000000 phases=3 Z0=[-86608.106, -160768.64] Z1=[7508.4341, -1718013.8] bus1=B_13.1.2.3 bus2=B_13.0.0.0
New "Reactor.Reac54" kv=12.470000000 phases=3 Z0=[-62025.313, -106287.03] Z1=[31021.129, -1566420.8] bus1=B_14.1.2.3 bus2=B_14.0.0.0
